Voltage_files_exported/IEEE13Nodeckt_VLN_Node_CasoB_V2G.txt

LINE-GROUND and LINE-LINE VOLTAGES BY BUS & NODE

Bus       Node    VLN (kV)   Angle      pu     Base kV    Node-Node   VLL (kV)  Angle      pu

SOURCEBUS 1       66.396 /_   30.0         1   115.000        1-2        115 /_   60.0         1
   -      2       66.397 /_  -90.0         1   115.000        2-3        115 /_  -60.0         1
   -      3       66.394 /_  150.0   0.99999   115.000        3-1        115 /_  180.0   0.99999
650 ..... 1       2.4017 /_    0.0   0.99996     4.160        1-2       4.16 /_   30.0   0.99999
   -      2       2.4018 /_ -120.0         1     4.160        2-3       4.16 /_  -90.0         1
   -      3       2.4017 /_  120.0   0.99998     4.160        3-1     4.1598 /_  150.0   0.99996
RG60 .... 1       2.5216 /_    0.0    1.0499     4.160        1-2     4.3417 /_   29.8    1.0437
   -      2       2.4917 /_ -120.0    1.0375     4.160        2-3     4.3548 /_  -89.7    1.0468
   -      3       2.5366 /_  120.0    1.0561     4.160        3-1     4.3804 /_  149.9     1.053
633 ..... 1       2.4595 /_   -2.0     1.024     4.160        1-2     4.2678 /_   28.6    1.0259
   -      2        2.487 /_ -121.3    1.0355     4.160        2-3     4.2845 /_  -91.9    1.0299
   -      3       2.4424 /_  118.0    1.0169     4.160        3-1     4.2456 /_  148.1    1.0206
634 ..... 1      0.28851 /_   -1.5    1.0411     0.480        1-2    0.50007 /_   28.9    1.0418
   -      2      0.29075 /_ -120.9    1.0491     0.480        2-3    0.50097 /_  -91.6    1.0437
   -      3      0.28567 /_  118.4    1.0308     0.480        3-1    0.49705 /_  148.6    1.0355
671 ..... 1       2.3791 /_   -4.9   0.99055     4.160        1-2     4.1715 /_   27.6    1.0028
   -      2       2.5108 /_ -121.9    1.0454     4.160        2-3      4.244 /_  -93.9    1.0202
   -      3       2.3448 /_  116.2   0.97628     4.160        3-1     4.1136 /_  145.9   0.98885
645 ..... 2       2.4614 /_ -121.5    1.0248     4.160        2-3     4.2492 /_  -91.9    1.0214
   -      3       2.4332 /_  118.0    1.0131     4.160
646 ..... 2       2.4573 /_ -121.6    1.0231     4.160        2-3     4.2387 /_  -91.9    1.0189
   -      3       2.4282 /_  118.1     1.011     4.160
692 ..... 1       2.3791 /_   -4.9   0.99055     4.160        1-2     4.1715 /_   27.6    1.0028
   -      2       2.5108 /_ -121.9    1.0454     4.160        2-3      4.244 /_  -93.9    1.0202
   -      3       2.3448 /_  116.2   0.97628     4.160        3-1     4.1136 /_  145.9   0.98885
675 ..... 1       2.3636 /_   -5.1    0.9841     4.160        1-2     4.1617 /_   27.5    1.0004
   -      2       2.5165 /_ -122.1    1.0478     4.160        2-3     4.2411 /_  -94.1    1.0195
   -      3       2.3403 /_  116.3    0.9744     4.160        3-1     4.1014 /_  145.7   0.98592
611 ..... 3       2.3352 /_  116.0   0.97226     4.160
652 ..... 1        2.361 /_   -4.8   0.98302     4.160
670 ..... 1       2.4297 /_   -3.0    1.0116     4.160        1-2     4.2298 /_   28.2    1.0168
   -      2       2.4906 /_ -121.5     1.037     4.160        2-3     4.2628 /_  -92.7    1.0247
   -      3       2.4037 /_  117.3    1.0008     4.160        3-1     4.1925 /_  147.4    1.0078
632 ..... 1       2.4544 /_   -2.1    1.0219     4.160        1-2     4.2602 /_   28.5    1.0241
   -      2       2.4835 /_ -121.3     1.034     4.160        2-3     4.2769 /_  -92.0    1.0281
   -      3       2.4378 /_  118.0     1.015     4.160        3-1      4.238 /_  148.1    1.0187
680 ..... 1       2.3791 /_   -4.9   0.99055     4.160        1-2     4.1715 /_   27.6    1.0028
   -      2       2.5108 /_ -121.9    1.0454     4.160        2-3      4.244 /_  -93.9    1.0202
   -      3       2.3448 /_  116.2   0.97628     4.160        3-1     4.1136 /_  145.9   0.98885
684 ..... 1       2.3744 /_   -4.9    0.9886     4.160
   -      3         2.34 /_  116.1   0.97426     4.160        3-1     4.1038 /_  145.9   0.98648
